4
Lattice="3.61 0.0 0.0 0.0 3.61 0.0 0.0 0.0 3.61" Properties=species:S:1:pos:R:3:forces:R:3:energies:R:1 energy=-0.01828834299887916 free_energy=-0.01828834299887916 pbc="T T T"
Cu       0.01764052       0.00400157       0.00978738      -0.13521264      -0.09341391      -0.02995677      -0.00426431
Cu       0.02240893       1.82367558       1.79522722      -0.01536465       0.16563013      -0.00209571      -0.00447119
Cu       1.81450088      -0.00151357       1.80396781       0.17102354      -0.10330838       0.04999955      -0.00401561
Cu       1.80910599       1.80644044       0.01454274      -0.02044625       0.03109217      -0.01794707      -0.00553723
4
Lattice="3.61 0.0 0.0 0.0 3.61 0.0 0.0 0.0 3.61" Properties=species:S:1:pos:R:3:forces:R:3:energies:R:1 energy=-0.01828834299887916 free_energy=-0.01828834299887916 pbc="T T T"
Cu       0.01624345      -0.00611756      -0.00528172      -0.13521264      -0.09341391      -0.02995677      -0.00426431
Cu      -0.01072969       1.81365408       1.78198461      -0.01536465       0.16563013      -0.00209571      -0.00447119
Cu       1.82244812      -0.00761207       1.80819039       0.17102354      -0.10330838       0.04999955      -0.00401561
Cu       1.80250630       1.81962108      -0.02060141      -0.02044625       0.03109217      -0.01794707      -0.00553723
4
Lattice="3.61 0.0 0.0 0.0 3.61 0.0 0.0 0.0 3.61" Properties=species:S:1:pos:R:3:forces:R:3:energies:R:1 energy=-0.01828834299887916 free_energy=-0.01828834299887916 pbc="T T T"
Cu      -0.00416758      -0.00056267      -0.02136196      -0.13521264      -0.09341391      -0.02995677      -0.00426431
Cu       0.01640271       1.78706564       1.79658253      -0.01536465       0.16563013      -0.00209571      -0.00447119
Cu       1.81002881      -0.01245288       1.79442048       0.17102354      -0.10330838       0.04999955      -0.00401561
Cu       1.79590992       1.81051454       0.02292208      -0.02044625       0.03109217      -0.01794707      -0.00553723
4
Lattice="3.61 0.0 0.0 0.0 3.61 0.0 0.0 0.0 3.61" Properties=species:S:1:pos:R:3:forces:R:3:energies:R:1 energy=-0.01828834299887916 free_energy=-0.01828834299887916 pbc="T T T"
Cu       0.01788628       0.00436510       0.00096497      -0.13521264      -0.09341391      -0.02995677      -0.00426431
Cu      -0.01863493       1.80222612       1.80145241      -0.01536465       0.16563013      -0.00209571      -0.00447119
Cu       1.80417259      -0.00627001       1.80456182       0.17102354      -0.10330838       0.04999955      -0.00401561
Cu       1.80022782       1.79186135       0.00884622      -0.02044625       0.03109217      -0.01794707      -0.00553723
4
Lattice="3.61 0.0 0.0 0.0 3.61 0.0 0.0 0.0 3.61" Properties=species:S:1:pos:R:3:forces:R:3:energies:R:1 energy=-0.01828834299887916 free_energy=-0.01828834299887916 pbc="T T T"
Cu       0.00050562       0.00499951      -0.00995909      -0.13521264      -0.09341391      -0.02995677      -0.00426431
Cu       0.00693599       1.80081698       1.78915423      -0.01536465       0.16563013      -0.00209571      -0.00447119
Cu       1.79852293       0.00598575       1.80832250       0.17102354      -0.10330838       0.04999955      -0.00401561
Cu       1.79352523       1.81118670      -0.00087987      -0.02044625       0.03109217      -0.01794707      -0.00553723
4
Lattice="3.61 0.0 0.0 0.0 3.61 0.0 0.0 0.0 3.61" Properties=species:S:1:pos:R:3:forces:R:3:energies:R:1 energy=-0.01828834299887916 free_energy=-0.01828834299887916 pbc="T T T"
Cu       0.00441227      -0.00330870       0.02430771      -0.13521264      -0.09341391      -0.02995677      -0.00426431
Cu      -0.00252092       1.80609610       1.82082481      -0.01536465       0.16563013      -0.00209571      -0.00447119
Cu       1.79590768      -0.00591637       1.80687603       0.17102354      -0.10330838       0.04999955      -0.00401561
Cu       1.80170130       1.79307235      -0.00204877      -0.02044625       0.03109217      -0.01794707      -0.00553723
4
Lattice="3.61 0.0 0.0 0.0 3.61 0.0 0.0 0.0 3.61" Properties=species:S:1:pos:R:3:forces:R:3:energies:R:1 energy=-0.01828834299887916 free_energy=-0.01828834299887916 pbc="T T T"
Cu      -0.00311784       0.00729004       0.00217821      -0.13521264      -0.09341391      -0.02995677      -0.00426431
Cu      -0.00899092       1.78013219       1.81413252      -0.01536465       0.16563013      -0.00209571      -0.00447119
Cu       1.81627064      -0.01514093       1.82139291       0.17102354      -0.10330838       0.04999955      -0.00401561
Cu       1.80070106       1.83131281       0.00601822      -0.02044625       0.03109217      -0.01794707      -0.00553723
4
Lattice="3.61 0.0 0.0 0.0 3.61 0.0 0.0 0.0 3.61" Properties=species:S:1:pos:R:3:forces:R:3:energies:R:1 energy=-0.01828834299887916 free_energy=-0.01828834299887916 pbc="T T T"
Cu       0.01690526      -0.00465937       0.00032820      -0.13521264      -0.09341391      -0.02995677      -0.00426431
Cu       0.00407516       1.79711077       1.80502066      -0.01536465       0.16563013      -0.00209571      -0.00447119
Cu       1.80499110      -0.01754724       1.81517658       0.17102354      -0.10330838       0.04999955      -0.00401561
Cu       1.81100499       1.79874571      -0.00171548      -0.02044625       0.03109217      -0.01794707      -0.00553723
4
Lattice="3.61 0.0 0.0 0.0 3.61 0.0 0.0 0.0 3.61" Properties=species:S:1:pos:R:3:forces:R:3:energies:R:1 energy=-0.01828834299887916 free_energy=-0.01828834299887916 pbc="T T T"
Cu       0.00091205       0.01091283      -0.01946970      -0.13521264      -0.09341391      -0.02995677      -0.00426431
Cu      -0.01386350       1.78203508       1.82909834      -0.01536465       0.16563013      -0.00209571      -0.00447119
Cu       1.82227836       0.02204556       1.81294828       0.17102354      -0.10330838       0.04999955      -0.00401561
Cu       1.81476421       1.79316573       0.01916364      -0.02044625       0.03109217      -0.01794707      -0.00553723
4
Lattice="3.61 0.0 0.0 0.0 3.61 0.0 0.0 0.0 3.61" Properties=species:S:1:pos:R:3:forces:R:3:energies:R:1 energy=-0.01828834299887916 free_energy=-0.01828834299887916 pbc="T T T"
Cu       0.00001109      -0.00289544      -0.01116066      -0.13521264      -0.09341391      -0.02995677      -0.00426431
Cu      -0.00012883       1.80121639       1.80018865      -0.01536465       0.16563013      -0.00209571      -0.00447119
Cu       1.78982669      -0.00490872       1.80259319       0.17102354      -0.10330838       0.04999955      -0.00401561
Cu       1.79852053       1.81135891       0.01740117      -0.02044625       0.03109217      -0.01794707      -0.00553723
4
Lattice="3.61 0.0 0.0 0.0 3.61 0.0 0.0 0.0 3.61" Properties=species:S:1:pos:R:3:forces:R:3:energies:R:1 energy=-0.01828834299887916 free_energy=-0.01828834299887916 pbc="T T T"
Cu       0.01331587       0.00715279      -0.01545400      -0.13521264      -0.09341391      -0.02995677      -0.00426431
Cu      -0.00008384       1.81121336       1.79779914      -0.01536465       0.16563013      -0.00209571      -0.00447119
Cu       1.80765512       0.00108549       1.80504291       0.17102354      -0.10330838       0.04999955      -0.00401561
Cu       1.80325400       1.80933026       0.01203037      -0.02044625       0.03109217      -0.01794707      -0.00553723
4
Lattice="3.61 0.0 0.0 0.0 3.61 0.0 0.0 0.0 3.61" Properties=species:S:1:pos:R:3:forces:R:3:energies:R:1 energy=-0.01828834299887916 free_energy=-0.01828834299887916 pbc="T T T"
Cu       0.01749455      -0.00286073      -0.00484565      -0.13521264      -0.09341391      -0.02995677      -0.00426431
Cu      -0.02653319       1.80491715       1.80180369      -0.01536465       0.16563013      -0.00209571      -0.00447119
Cu       1.79963371       0.00315403       1.80921051       0.17102354      -0.10330838       0.04999955      -0.00401561
Cu       1.79434397       1.79613760      -0.00475733      -0.02044625       0.03109217      -0.01794707      -0.00553723
4
Lattice="3.61 0.0 0.0 0.0 3.61 0.0 0.0 0.0 3.61" Properties=species:S:1:pos:R:3:forces:R:3:energies:R:1 energy=-0.01828834299887916 free_energy=-0.01828834299887916 pbc="T T T"
Cu       0.00472986      -0.00681426       0.00242439      -0.13521264      -0.09341391      -0.02995677      -0.00426431
Cu      -0.01700736       1.81253143       1.78965279      -0.01536465       0.16563013      -0.00209571      -0.00447119
Cu       1.80505127      -0.00120228       1.79693018       0.17102354      -0.10330838       0.04999955      -0.00401561
Cu       1.83371819       1.79902177       0.00472457      -0.02044625       0.03109217      -0.01794707      -0.00553723
4
Lattice="3.61 0.0 0.0 0.0 3.61 0.0 0.0 0.0 3.61" Properties=species:S:1:pos:R:3:forces:R:3:energies:R:1 energy=-0.01828834299887916 free_energy=-0.01828834299887916 pbc="T T T"
Cu      -0.00712391       0.00753766      -0.00044503      -0.13521264      -0.09341391      -0.02995677      -0.00426431
Cu       0.00451812       1.81845102       1.81032338      -0.01536465       0.16563013      -0.00209571      -0.00447119
Cu       1.81850188       0.00861211       1.81978686       0.17102354      -0.10330838       0.04999955      -0.00401561
Cu       1.79454623       1.79711011      -0.01261606      -0.02044625       0.03109217      -0.01794707      -0.00553723
4
Lattice="3.61 0.0 0.0 0.0 3.61 0.0 0.0 0.0 3.61" Properties=species:S:1:pos:R:3:forces:R:3:energies:R:1 energy=-0.01828834299887916 free_energy=-0.01828834299887916 pbc="T T T"
Cu       0.01551339       0.00079186       0.00173977      -0.13521264      -0.09341391      -0.02995677      -0.00426431
Cu      -0.00072337       1.78495671       1.80644678      -0.01536465       0.16563013      -0.00209571      -0.00447119
Cu       1.78998831       0.00211109       1.79941795       0.17102354      -0.10330838       0.04999955      -0.00401561
Cu       1.81584529       1.80313711       0.00014661      -0.02044625       0.03109217      -0.01794707      -0.00553723
